Info: SIMULATION PARAMETERS:
Info: TIMESTEP               2
Info: NUMBER OF STEPS        0
Info: STEPS PER CYCLE        10
Info: PERIODIC CELL BASIS 1  27.968 0 0
Info: PERIODIC CELL BASIS 2  0 38.136 0
Info: PERIODIC CELL BASIS 3  0 0 28.101
Info: PERIODIC CELL CENTER   -0.981 -0.642 0.5875
Info: WRAPPING WATERS AROUND PERIODIC BOUNDARIES ON OUTPUT.
Info: WRAPPING ALL CLUSTERS AROUND PERIODIC BOUNDARIES ON OUTPUT.
Info: FIRST LDB TIMESTEP     50
Info: LAST LDB TIMESTEP     -1
Info: HOM BACKGROUND SCALING 1
Info: PME BACKGROUND SCALING 1
Info: MIN ATOMS PER PATCH    40
Info: INITIAL TEMPERATURE    10
Info: CENTER OF MASS MOVING INITIALLY? NO
Info: DIELECTRIC             1
Info: EXCLUDE                SCALED ONE-FOUR
Info: 1-4 ELECTROSTATICS SCALED BY 0.5
Info: MODIFIED 1-4 VDW PARAMETERS WILL BE USED
Info: DCD FILENAME           equil-all.dcd
Info: DCD FREQUENCY          500
Info: DCD FIRST STEP         500
Info: DCD FILE WILL CONTAIN UNIT CELL DATA
Info: XST FILENAME           equil-all.xst
Info: XST FREQUENCY          500
Info: NO VELOCITY DCD OUTPUT
Info: NO FORCE DCD OUTPUT
Info: OUTPUT FILENAME        equil-all
Info: BINARY OUTPUT FILES WILL BE USED
Info: RESTART FILENAME       equil-all.restart
Info: RESTART FREQUENCY      500
Info: BINARY RESTART FILES WILL BE USED
Info: SWITCHING ACTIVE
Info: SWITCHING ON           12
Info: SWITCHING OFF          14
Info: PAIRLIST DISTANCE      16
Info: PAIRLIST SHRINK RATE   0.01
Info: PAIRLIST GROW RATE     0.01
Info: PAIRLIST TRIGGER       0.3
Info: PAIRLISTS PER CYCLE    2
Info: PAIRLISTS ENABLED
Info: MARGIN                 0
Info: HYDROGEN GROUP CUTOFF  2.5
Info: PATCH DIMENSION        18.5
Info: ENERGY OUTPUT STEPS    100
Info: CROSSTERM ENERGY INCLUDED IN DIHEDRAL
Info: TIMING OUTPUT STEPS    500
Info: PRESSURE OUTPUT STEPS  100
Info: INTERACTIVE MD ACTIVE
Info: INTERACTIVE MD PORT    3000
Info: INTERACTIVE MD FREQ    1
Info: VELOCITY REASSIGNMENT FREQ  100
Info: VELOCITY REASSIGNMENT TEMP  10
Info: VELOCITY REASSIGNMENT INCR  1
Info: VELOCITY REASSIGNMENT HOLD  310
Info: PARTICLE MESH EWALD (PME) ACTIVE
Info: PME TOLERANCE               1e-06
Info: PME EWALD COEFFICIENT       0.219398
Info: PME INTERPOLATION ORDER     4
Info: PME GRID DIMENSIONS         28 40 32
Info: PME MAXIMUM GRID SPACING    1
Info: FULL ELECTROSTATIC EVALUATION FREQUENCY      2
Info: USING VERLET I (r-RESPA) MTS SCHEME.
Info: C1 SPLITTING OF LONG RANGE ELECTROSTATICS
Info: PLACING ATOMS IN PATCHES BY HYDROGEN GROUPS
Info: RIGID BONDS TO HYDROGEN : ALL
Info:         ERROR TOLERANCE : 1e-08
Info:          MAX ITERATIONS : 100
Info: RIGID WATER USING SETTLE ALGORITHM
Info: RANDOM NUMBER SEED     1352121880
Info: USE HYDROGEN BONDS?    NO
Info: COORDINATE PDB         pep5_ionized.pdb
Info: STRUCTURE FILE         pep5_ionized.psf
Info: PARAMETER file: CHARMM format!
Info: PARAMETERS             /home/lammps/Programas/CHARMM_top/par_all27_prot_lipid.prm
Info: USING ARITHMETIC MEAN TO COMBINE L-J SIGMA PARAMETERS
Info: BINARY COORDINATES     min-all.coor
Info: SUMMARY OF PARAMETERS:
Info: 180 BONDS
Info: 447 ANGLES
Info: 566 DIHEDRAL
Info: 46 IMPROPER
Info: 6 CROSSTERM
Info: 119 VDW
Info: 0 VDW_PAIRS
Info: 0 NBTHOLE_PAIRS
Info: STRUCTURE SUMMARY:
Info: 2739 ATOMS
Info: 1848 BONDS
Info: 1006 ANGLES
Info: 158 DIHEDRALS
Info: 15 IMPROPERS
Info: 3 CROSSTERMS
Info: 0 EXCLUSIONS
Info: 2704 RIGID BONDS
Info: 5510 DEGREES OF FREEDOM
Info: 926 HYDROGEN GROUPS
Info: 4 ATOMS IN LARGEST HYDROGEN GROUP
Info: 926 MIGRATION GROUPS
Info: 4 ATOMS IN LARGEST MIGRATION GROUP
Info: TOTAL MASS = 16569.3 amu
Info: TOTAL CHARGE = 1.11759e-08 e
Info: MASS DENSITY = 0.918004 g/cm^3
Info: ATOM DENSITY = 0.0913847 atoms/A^3
Info: REMOVING COM VELOCITY 0.0108337 -0.0114823 0.00140311
Info: NONBONDED TABLE R-SQUARED SPACING: 0.0625
Info: NONBONDED TABLE SIZE: 769 POINTS
Info: Updated CUDA LJ table with 119 x 119 elements.
Info: Updated CUDA force table with 4096 elements.
Info: Interactive MD listening on port 3000.
Info: Found 56 unique exclusion lists needing 100 bytes
TCL: Running for 5000 steps
Info: IMD connection opened
ETITLE: TS BOND ANGLE DIHED IMPRP ELECT VDW BOUNDARY MISC KINETIC TOTAL TEMP POTENTIAL TOTAL3 TEMPAVG PRESSURE GPRESSURE VOLUME PRESSAVG GPRESSAVG
ENERGY: 0 0.6122 7.2899 12.2107 0.8062 -12767.9180 1728.1656 0.0000 0.0000 55.9085 -10962.9249 10.2121 -11018.8334 -10962.8992 10.2121 -1072.4197 -1051.0725 29972.1795 -1072.4197 -1051.0725
ENERGY: 1000 1.0707 9.2225 12.0043 0.9823 -12535.1509 1540.9973 0.0000 0.0000 109.1347 -10861.7391 19.9343 -10970.8738 -10857.2609 17.2899 -2520.8718 -2498.4105 29972.1795 -2918.2554 -2918.2130
ENERGY: 2000 1.7438 10.0066 12.8583 0.8830 -12447.9459 1484.6794 0.0000 0.0000 160.9542 -10776.8206 29.3996 -10937.7748 -10774.1749 27.6138 -2975.0777 -2951.8848 29972.1795 -2906.5234 -2906.4866
ENERGY: 3000 1.5113 11.7342 12.8251 0.9142 -12390.0202 1466.5870 0.0000 0.0000 211.5938 -10684.8547 38.6493 -10896.4484 -10682.8996 37.5477 -2923.9205 -2898.9525 29972.1795 -2900.6249 -2900.6006
ENERGY: 4000 2.7760 10.4286 14.3128 0.8168 -12387.2266 1490.6408 0.0000 0.0000 268.5706 -10599.6809 49.0566 -10868.2515 -10596.4334 47.6714 -2620.6563 -2597.0497 29972.1795 -2646.9720 -2647.0266
ENERGY: 5000 2.1063 14.0824 14.0661 1.2554 -12272.3474 1418.0659 0.0000 0.0000 326.6374 -10496.1339 59.6629 -10822.7713 -10497.0255 59.2380 -3007.7171 -2991.4316 29972.1795 -2566.3270 -2566.3432
