Info: SIMULATION PARAMETERS:
Info: TIMESTEP               2
Info: NUMBER OF STEPS        0
Info: STEPS PER CYCLE        10
Info: PERIODIC CELL BASIS 1  27.968 0 0
Info: PERIODIC CELL BASIS 2  0 38.136 0
Info: PERIODIC CELL BASIS 3  0 0 28.101
Info: PERIODIC CELL CENTER   -0.981 -0.642 0.5875
Info: WRAPPING WATERS AROUND PERIODIC BOUNDARIES ON OUTPUT.
Info: WRAPPING ALL CLUSTERS AROUND PERIODIC BOUNDARIES ON OUTPUT.
Info: FIRST LDB TIMESTEP     50
Info: LAST LDB TIMESTEP     -1
Info: HOM BACKGROUND SCALING 1
Info: PME BACKGROUND SCALING 1
Info: MIN ATOMS PER PATCH    40
Info: INITIAL TEMPERATURE    10
Info: CENTER OF MASS MOVING INITIALLY? NO
Info: DIELECTRIC             1
Info: EXCLUDE                SCALED ONE-FOUR
Info: 1-4 ELECTROSTATICS SCALED BY 0.5
Info: MODIFIED 1-4 VDW PARAMETERS WILL BE USED
Info: DCD FILENAME           equil-all.dcd
Info: DCD FREQUENCY          500
Info: DCD FIRST STEP         500
Info: DCD FILE WILL CONTAIN UNIT CELL DATA
Info: XST FILENAME           equil-all.xst
Info: XST FREQUENCY          500
Info: NO VELOCITY DCD OUTPUT
Info: NO FORCE DCD OUTPUT
Info: OUTPUT FILENAME        equil-all
Info: BINARY OUTPUT FILES WILL BE USED
Info: RESTART FILENAME       equil-all.restart
Info: RESTART FREQUENCY      500
Info: BINARY RESTART FILES WILL BE USED
Info: SWITCHING ACTIVE
Info: SWITCHING ON           12
Info: SWITCHING OFF          14
Info: PAIRLIST DISTANCE      16
Info: PAIRLIST SHRINK RATE   0.01
Info: PAIRLIST GROW RATE     0.01
Info: PAIRLIST TRIGGER       0.3
Info: PAIRLISTS PER CYCLE    2
Info: PAIRLISTS ENABLED
Info: MARGIN                 0
Info: HYDROGEN GROUP CUTOFF  2.5
Info: PATCH DIMENSION        18.5
Info: ENERGY OUTPUT STEPS    100
Info: CROSSTERM ENERGY INCLUDED IN DIHEDRAL
Info: TIMING OUTPUT STEPS    500
Info: PRESSURE OUTPUT STEPS  100
Info: INTERACTIVE MD ACTIVE
Info: INTERACTIVE MD PORT    3000
Info: INTERACTIVE MD FREQ    1
Info: VELOCITY REASSIGNMENT FREQ  100
Info: VELOCITY REASSIGNMENT TEMP  10
Info: VELOCITY REASSIGNMENT INCR  1
Info: VELOCITY REASSIGNMENT HOLD  310
Info: PARTICLE MESH EWALD (PME) ACTIVE
Info: PME TOLERANCE               1e-06
Info: PME EWALD COEFFICIENT       0.219398
Info: PME INTERPOLATION ORDER     4
Info: PME GRID DIMENSIONS         28 40 32
Info: PME MAXIMUM GRID SPACING    1
Info: FULL ELECTROSTATIC EVALUATION FREQUENCY      2
Info: USING VERLET I (r-RESPA) MTS SCHEME.
Info: C1 SPLITTING OF LONG RANGE ELECTROSTATICS
Info: PLACING ATOMS IN PATCHES BY HYDROGEN GROUPS
Info: RIGID BONDS TO HYDROGEN : ALL
Info:         ERROR TOLERANCE : 1e-08
Info:          MAX ITERATIONS : 100
Info: RIGID WATER USING SETTLE ALGORITHM
Info: RANDOM NUMBER SEED     1358984972
Info: USE HYDROGEN BONDS?    NO
Info: COORDINATE PDB         pep5_ionized.pdb
Info: STRUCTURE FILE         pep5_ionized.psf
Info: PARAMETER file: CHARMM format!
Info: PARAMETERS             /home/lammps/Programas/CHARMM_top/par_all27_prot_lipid.prm
Info: USING ARITHMETIC MEAN TO COMBINE L-J SIGMA PARAMETERS
Info: BINARY COORDINATES     min-all.coor
Info: SUMMARY OF PARAMETERS:
Info: 180 BONDS
Info: 447 ANGLES
Info: 566 DIHEDRAL
Info: 46 IMPROPER
Info: 6 CROSSTERM
Info: 119 VDW
Info: 0 VDW_PAIRS
Info: 0 NBTHOLE_PAIRS
Info: STRUCTURE SUMMARY:
Info: 2739 ATOMS
Info: 1848 BONDS
Info: 1006 ANGLES
Info: 158 DIHEDRALS
Info: 15 IMPROPERS
Info: 3 CROSSTERMS
Info: 0 EXCLUSIONS
Info: 2704 RIGID BONDS
Info: 5510 DEGREES OF FREEDOM
Info: 926 HYDROGEN GROUPS
Info: 4 ATOMS IN LARGEST HYDROGEN GROUP
Info: 926 MIGRATION GROUPS
Info: 4 ATOMS IN LARGEST MIGRATION GROUP
Info: TOTAL MASS = 16569.3 amu
Info: TOTAL CHARGE = 1.11759e-08 e
Info: MASS DENSITY = 0.918004 g/cm^3
Info: ATOM DENSITY = 0.0913847 atoms/A^3
Info: REMOVING COM VELOCITY 0.0174233 0.0314368 0.0153307
Info: NONBONDED TABLE R-SQUARED SPACING: 0.0625
Info: NONBONDED TABLE SIZE: 769 POINTS
Info: Updated CUDA LJ table with 119 x 119 elements.
Info: Updated CUDA force table with 4096 elements.
Info: Interactive MD listening on port 3000.
Info: Found 56 unique exclusion lists needing 100 bytes
TCL: Running for 5000 steps
ETITLE: TS BOND ANGLE DIHED IMPRP ELECT VDW BOUNDARY MISC KINETIC TOTAL TEMP POTENTIAL TOTAL3 TEMPAVG PRESSURE GPRESSURE VOLUME PRESSAVG GPRESSAVG
ENERGY: 0 0.6002 5.8490 12.3484 0.5414 -12800.7723 1738.4086 0.0000 0.0000 55.4498 -10987.5749 10.1283 -11043.0246 -10987.5501 10.1283 -1101.7982 -1074.5275 29972.1795 -1101.7982 -1074.5275
ENERGY: 1000 1.1961 8.0982 12.8746 0.6859 -12595.4934 1566.5217 0.0000 0.0000 110.9965 -10895.1203 20.2744 -11006.1168 -10890.0161 17.5107 -2473.4137 -2445.2587 29972.1795 -2708.2293 -2708.1866
ENERGY: 2000 1.3873 8.7412 12.9189 0.7676 -12533.8970 1543.5098 0.0000 0.0000 166.1430 -10800.4292 30.3473 -10966.5722 -10793.7893 27.4842 -2582.4604 -2553.6453 29972.1795 -2743.9359 -2743.8681
ENERGY: 3000 0.9517 10.2441 12.7306 1.0120 -12484.9404 1527.4568 0.0000 0.0000 224.7909 -10707.7544 41.0599 -10932.5453 -10700.2861 37.4043 -2467.4761 -2432.8044 29972.1795 -2704.6012 -2704.4415
ENERGY: 4000 1.8267 11.8406 13.2034 1.0245 -12404.2334 1487.8535 0.0000 0.0000 264.7572 -10623.7275 48.3600 -10888.4847 -10624.3081 48.2212 -2708.9136 -2685.1846 29972.1795 -2697.6244 -2697.6563
ENERGY: 5000 2.8628 12.7219 13.2119 0.3979 -12391.9306 1507.3485 0.0000 0.0000 326.9646 -10528.4229 59.7227 -10855.3875 -10521.2190 57.9668 -2425.5122 -2395.0246 29972.1795 -2467.3357 -2467.2708
