Info: SIMULATION PARAMETERS:
Info: TIMESTEP               2
Info: NUMBER OF STEPS        0
Info: STEPS PER CYCLE        10
Info: PERIODIC CELL BASIS 1  27.968 0 0
Info: PERIODIC CELL BASIS 2  0 38.136 0
Info: PERIODIC CELL BASIS 3  0 0 28.101
Info: PERIODIC CELL CENTER   -0.981 -0.642 0.5875
Info: WRAPPING WATERS AROUND PERIODIC BOUNDARIES ON OUTPUT.
Info: WRAPPING ALL CLUSTERS AROUND PERIODIC BOUNDARIES ON OUTPUT.
Info: FIRST LDB TIMESTEP     50
Info: LAST LDB TIMESTEP     -1
Info: HOM BACKGROUND SCALING 1
Info: PME BACKGROUND SCALING 1
Info: MIN ATOMS PER PATCH    40
Info: INITIAL TEMPERATURE    10
Info: CENTER OF MASS MOVING INITIALLY? NO
Info: DIELECTRIC             1
Info: EXCLUDE                SCALED ONE-FOUR
Info: 1-4 ELECTROSTATICS SCALED BY 0.5
Info: MODIFIED 1-4 VDW PARAMETERS WILL BE USED
Info: DCD FILENAME           equil-all.dcd
Info: DCD FREQUENCY          500
Info: DCD FIRST STEP         500
Info: DCD FILE WILL CONTAIN UNIT CELL DATA
Info: XST FILENAME           equil-all.xst
Info: XST FREQUENCY          500
Info: NO VELOCITY DCD OUTPUT
Info: NO FORCE DCD OUTPUT
Info: OUTPUT FILENAME        equil-all
Info: BINARY OUTPUT FILES WILL BE USED
Info: RESTART FILENAME       equil-all.restart
Info: RESTART FREQUENCY      500
Info: BINARY RESTART FILES WILL BE USED
Info: SWITCHING ACTIVE
Info: SWITCHING ON           12
Info: SWITCHING OFF          14
Info: PAIRLIST DISTANCE      16
Info: PAIRLIST SHRINK RATE   0.01
Info: PAIRLIST GROW RATE     0.01
Info: PAIRLIST TRIGGER       0.3
Info: PAIRLISTS PER CYCLE    2
Info: PAIRLISTS ENABLED
Info: MARGIN                 0
Info: HYDROGEN GROUP CUTOFF  2.5
Info: PATCH DIMENSION        18.5
Info: ENERGY OUTPUT STEPS    100
Info: CROSSTERM ENERGY INCLUDED IN DIHEDRAL
Info: TIMING OUTPUT STEPS    500
Info: PRESSURE OUTPUT STEPS  100
Info: VELOCITY REASSIGNMENT FREQ  100
Info: VELOCITY REASSIGNMENT TEMP  10
Info: VELOCITY REASSIGNMENT INCR  1
Info: VELOCITY REASSIGNMENT HOLD  310
Info: PARTICLE MESH EWALD (PME) ACTIVE
Info: PME TOLERANCE               1e-06
Info: PME EWALD COEFFICIENT       0.219398
Info: PME INTERPOLATION ORDER     4
Info: PME GRID DIMENSIONS         28 40 32
Info: PME MAXIMUM GRID SPACING    1
Info: FULL ELECTROSTATIC EVALUATION FREQUENCY      2
Info: USING VERLET I (r-RESPA) MTS SCHEME.
Info: C1 SPLITTING OF LONG RANGE ELECTROSTATICS
Info: PLACING ATOMS IN PATCHES BY HYDROGEN GROUPS
Info: RIGID BONDS TO HYDROGEN : ALL
Info:         ERROR TOLERANCE : 1e-08
Info:          MAX ITERATIONS : 100
Info: RIGID WATER USING SETTLE ALGORITHM
Info: RANDOM NUMBER SEED     1379601267
Info: USE HYDROGEN BONDS?    NO
Info: COORDINATE PDB         pep5_ionized.pdb
Info: STRUCTURE FILE         pep5_ionized.psf
Info: PARAMETER file: CHARMM format!
Info: PARAMETERS             /home/eduardo/Programas/NAMD_CVS-2013-08-08_Linux-x86_64-multicore-CUDA/toppar/par_all27_prot_lipid.prm
Info: USING ARITHMETIC MEAN TO COMBINE L-J SIGMA PARAMETERS
Info: BINARY COORDINATES     min-all.coor
Info: SUMMARY OF PARAMETERS:
Info: 185 BONDS
Info: 467 ANGLES
Info: 601 DIHEDRAL
Info: 47 IMPROPER
Info: 6 CROSSTERM
Info: 121 VDW
Info: 0 VDW_PAIRS
Info: 0 NBTHOLE_PAIRS
Info: STRUCTURE SUMMARY:
Info: 2739 ATOMS
Info: 1848 BONDS
Info: 1006 ANGLES
Info: 158 DIHEDRALS
Info: 15 IMPROPERS
Info: 3 CROSSTERMS
Info: 0 EXCLUSIONS
Info: 2704 RIGID BONDS
Info: 5510 DEGREES OF FREEDOM
Info: 926 HYDROGEN GROUPS
Info: 4 ATOMS IN LARGEST HYDROGEN GROUP
Info: 926 MIGRATION GROUPS
Info: 4 ATOMS IN LARGEST MIGRATION GROUP
Info: TOTAL MASS = 16569.3 amu
Info: TOTAL CHARGE = 1.11759e-08 e
Info: MASS DENSITY = 0.918004 g/cm^3
Info: ATOM DENSITY = 0.0913847 atoms/A^3
Info: REMOVING COM VELOCITY -0.0237518 -0.007074 -0.00466909
Info: NONBONDED TABLE R-SQUARED SPACING: 0.0625
Info: NONBONDED TABLE SIZE: 769 POINTS
TCL: Running for 50000 steps
ETITLE: TS BOND ANGLE DIHED IMPRP ELECT VDW BOUNDARY MISC KINETIC TOTAL TEMP POTENTIAL TOTAL3 TEMPAVG PRESSURE GPRESSURE VOLUME PRESSAVG GPRESSAVG
ENERGY: 0 0.5624 7.6359 12.3099 0.8884 -12746.1993 1678.5334 0.0000 0.0000 54.6872 -10991.5821 9.9891 -11046.2693 -10991.5576 9.9891 -1597.6920 -1580.2739 29972.1795 -1597.6920 -1580.2739
ENERGY: 10000 4.8809 12.3640 17.3074 1.2493 -12089.0934 1426.4331 0.0000 0.0000 600.6227 -10026.2360 109.7086 -10626.8587 -10022.7387 106.6160 -2244.1580 -2243.2464 29972.1795 -2439.8990 -2440.0220
ENERGY: 20000 6.6176 26.4466 13.3144 0.6914 -11264.7894 1228.1242 0.0000 0.0000 1111.7329 -8877.8623 203.0670 -9989.5952 -8869.8772 205.7591 -1779.7003 -1778.4745 29972.1795 -2067.4613 -2067.5805
ENERGY: 30000 11.5107 23.0447 16.7393 3.3429 -9651.2782 801.2924 0.0000 0.0000 1710.1640 -7085.1843 312.3752 -8795.3483 -7073.0884 303.8998 -1594.4933 -1548.4320 29972.1795 -1416.8002 -1416.5361
ENERGY: 40000 8.3596 18.2973 19.3725 1.4771 -9549.9686 794.3109 0.0000 0.0000 1740.9284 -6967.2229 317.9946 -8708.1513 -6946.8061 314.1819 -1500.4753 -1444.7246 29972.1795 -983.8121 -983.3878
ENERGY: 50000 9.7187 29.2111 13.8265 2.2670 -9602.0837 868.0978 0.0000 0.0000 1655.2621 -7023.7005 302.3469 -8678.9626 -7047.1072 319.4129 -675.6331 -653.6844 29972.1795 -1360.6635 -1360.6429
