Info: SIMULATION PARAMETERS:
Info: TIMESTEP               1
Info: NUMBER OF STEPS        0
Info: STEPS PER CYCLE        10
Info: PERIODIC CELL BASIS 1  27.968 0 0
Info: PERIODIC CELL BASIS 2  0 38.136 0
Info: PERIODIC CELL BASIS 3  0 0 28.101
Info: PERIODIC CELL CENTER   -0.981 -0.642 0.5875
Info: WRAPPING WATERS AROUND PERIODIC BOUNDARIES ON OUTPUT.
Info: WRAPPING ALL CLUSTERS AROUND PERIODIC BOUNDARIES ON OUTPUT.
Info: FIRST LDB TIMESTEP     50
Info: LAST LDB TIMESTEP     -1
Info: HOM BACKGROUND SCALING 1
Info: PME BACKGROUND SCALING 1
Info: MIN ATOMS PER PATCH    40
Info: INITIAL TEMPERATURE    0
Info: CENTER OF MASS MOVING INITIALLY? NO
Info: DIELECTRIC             1
Info: EXCLUDE                SCALED ONE-FOUR
Info: 1-4 ELECTROSTATICS SCALED BY 0.5
Info: MODIFIED 1-4 VDW PARAMETERS WILL BE USED
Info: DCD FILENAME           minMD-np.dcd
Info: DCD FREQUENCY          500
Info: DCD FIRST STEP         500
Info: DCD FILE WILL CONTAIN UNIT CELL DATA
Info: XST FILENAME           minMD-np.xst
Info: XST FREQUENCY          500
Info: NO VELOCITY DCD OUTPUT
Info: NO FORCE DCD OUTPUT
Info: OUTPUT FILENAME        minMD-np
Info: BINARY OUTPUT FILES WILL BE USED
Info: RESTART FILENAME       minMD-np.restart
Info: RESTART FREQUENCY      500
Info: BINARY RESTART FILES WILL BE USED
Info: SWITCHING ACTIVE
Info: SWITCHING ON           12
Info: SWITCHING OFF          14
Info: PAIRLIST DISTANCE      16
Info: PAIRLIST SHRINK RATE   0.01
Info: PAIRLIST GROW RATE     0.01
Info: PAIRLIST TRIGGER       0.3
Info: PAIRLISTS PER CYCLE    2
Info: PAIRLISTS ENABLED
Info: MARGIN                 0
Info: HYDROGEN GROUP CUTOFF  2.5
Info: PATCH DIMENSION        18.5
Info: ENERGY OUTPUT STEPS    100
Info: CROSSTERM ENERGY INCLUDED IN DIHEDRAL
Info: TIMING OUTPUT STEPS    500
Info: PRESSURE OUTPUT STEPS  100
Info: FIXED ATOMS ACTIVE
Info: LANGEVIN DYNAMICS ACTIVE
Info: LANGEVIN TEMPERATURE   0
Info: LANGEVIN DAMPING COEFFICIENT IS 5 INVERSE PS
Info: LANGEVIN DYNAMICS NOT APPLIED TO HYDROGENS
Info: PARTICLE MESH EWALD (PME) ACTIVE
Info: PME TOLERANCE               1e-06
Info: PME EWALD COEFFICIENT       0.219398
Info: PME INTERPOLATION ORDER     4
Info: PME GRID DIMENSIONS         28 40 32
Info: PME MAXIMUM GRID SPACING    1
Info: FULL ELECTROSTATIC EVALUATION FREQUENCY      2
Info: USING VERLET I (r-RESPA) MTS SCHEME.
Info: C1 SPLITTING OF LONG RANGE ELECTROSTATICS
Info: PLACING ATOMS IN PATCHES BY HYDROGEN GROUPS
Info: RIGID BONDS TO HYDROGEN : ALL
Info:         ERROR TOLERANCE : 1e-08
Info:          MAX ITERATIONS : 100
Info: RIGID WATER USING SETTLE ALGORITHM
Info: RANDOM NUMBER SEED     1379600939
Info: USE HYDROGEN BONDS?    NO
Info: COORDINATE PDB         pep5_ionized.pdb
Info: STRUCTURE FILE         pep5_ionized.psf
Info: PARAMETER file: CHARMM format!
Info: PARAMETERS             /home/eduardo/Programas/NAMD_CVS-2013-08-08_Linux-x86_64-multicore-CUDA/toppar/par_all27_prot_lipid.prm
Info: USING ARITHMETIC MEAN TO COMBINE L-J SIGMA PARAMETERS
Info: BINARY COORDINATES     min-np.coor
Info: SUMMARY OF PARAMETERS:
Info: 185 BONDS
Info: 467 ANGLES
Info: 601 DIHEDRAL
Info: 47 IMPROPER
Info: 6 CROSSTERM
Info: 121 VDW
Info: 0 VDW_PAIRS
Info: 0 NBTHOLE_PAIRS
Info: STRUCTURE SUMMARY:
Info: 2739 ATOMS
Info: 1848 BONDS
Info: 1006 ANGLES
Info: 158 DIHEDRALS
Info: 15 IMPROPERS
Info: 3 CROSSTERMS
Info: 0 EXCLUSIONS
Info: 66 FIXED ATOMS
Info: 2704 RIGID BONDS
Info: 31 RIGID BONDS BETWEEN FIXED ATOMS
Info: 5346 DEGREES OF FREEDOM
Info: 926 HYDROGEN GROUPS
Info: 4 ATOMS IN LARGEST HYDROGEN GROUP
Info: 926 MIGRATION GROUPS
Info: 4 ATOMS IN LARGEST MIGRATION GROUP
Info: 35 HYDROGEN GROUPS WITH ALL ATOMS FIXED
Info: TOTAL MASS = 16569.3 amu
Info: TOTAL CHARGE = 1.11759e-08 e
Info: MASS DENSITY = 0.918004 g/cm^3
Info: ATOM DENSITY = 0.0913847 atoms/A^3
Info: REMOVING COM VELOCITY 0 0 0
Info: NONBONDED TABLE R-SQUARED SPACING: 0.0625
Info: NONBONDED TABLE SIZE: 769 POINTS
TCL: Running for 15000 steps
ETITLE: TS BOND ANGLE DIHED IMPRP ELECT VDW BOUNDARY MISC KINETIC TOTAL TEMP POTENTIAL TOTAL3 TEMPAVG PRESSURE GPRESSURE VOLUME PRESSAVG GPRESSAVG
ENERGY: 0 0.0000 0.0000 0.0000 0.0000 -12790.3864 1716.7034 0.0000 0.0000 0.0000 -11073.6830 0.0000 -11073.6830 -11073.6768 0.0000 -1223.1065 -1204.2938 29972.1795 -1223.1065 -1204.2938
ENERGY: 3000 0.0000 0.0000 0.0000 0.0000 -12627.0856 1497.9887 0.0000 0.0000 1.4169 -11127.6800 0.2667 -11129.0969 -11127.6779 0.2623 -3303.4040 -3288.9863 29972.1795 -3286.4733 -3286.4350
ENERGY: 6000 0.0000 0.0000 0.0000 0.0000 -12631.8688 1498.9648 0.0000 0.0000 0.4332 -11132.4708 0.0815 -11132.9040 -11132.4698 0.0821 -3277.1906 -3262.2696 29972.1795 -3262.9204 -3262.9382
ENERGY: 9000 0.0000 0.0000 0.0000 0.0000 -12630.7431 1496.3853 0.0000 0.0000 0.2184 -11134.1393 0.0411 -11134.3577 -11134.1385 0.0416 -3294.9091 -3279.9057 29972.1795 -3279.5715 -3279.5835
ENERGY: 12000 0.0000 0.0000 0.0000 0.0000 -12629.8832 1495.2712 0.0000 0.0000 0.1149 -11134.4971 0.0216 -11134.6120 -11134.4964 0.0218 -3302.0301 -3287.1121 29972.1795 -3287.1363 -3287.1447
ENERGY: 15000 0.0000 0.0000 0.0000 0.0000 -12627.4406 1492.6265 0.0000 0.0000 0.0626 -11134.7515 0.0118 -11134.8141 -11134.7508 0.0118 -3323.1809 -3308.2972 29972.1795 -3308.0922 -3308.0995
